Circuit: * X:\PWR_CNVT\Boost_SMPL\Boost_SMPL.asc

.OP point found by inspection.

Date: Sat Jan 01 20:32:40 2022
Total elapsed time: 2.221 seconds.

tnom = 27
temp = 27
method = modified trap
totiter = 287164
traniter = 287164
tranpoints = 92271
accept = 67335
rejected = 24936
matrix size = 20
fillins = 16
solver = Normal
Matrix Compiler1: 2.72 KB object code size  0.6/0.6/[0.2]
Matrix Compiler2: 2.09 KB object code size  0.3/0.3/[0.2]

